data/rts_gmlc_gic.m
%% MATPOWER Case Format : Version 2
function mpc = rts_gmlc_gic_matpower
mpc.version = '2';

%%-----  Power Flow Data  -----%%
%% system MVA base
mpc.baseMVA = 100;
%% bus data
%    bus_i    type    Pd    Qd    Gs    Bs    area    Vm    Va    baseKV    zone    Vmax    Vmin
mpc.bus = [
	1	2	0.0	0.0	0.0	0.0	1	1.1	0.0	13.8	1	1.3	0.7				
	2	1	175.0945	49.9035	0.0	0.0	1	1.1	0.0	230.0	1	1.3	0.7				
	3	1	157.244	44.8115	0.0	0.0	1	1.1	0.0	230.0	1	1.3	0.7				
	4	1	148.9695	42.4555	0.0	0.0	1	1.1	0.0	230.0	1	1.3	0.7				
	5	1	160.0275	45.6095	0.0	0.0	1	1.1	0.0	230.0	1	1.3	0.7				
	6	1	149.0455	42.4745	0.0	0.0	1	1.1	0.0	230.0	1	1.3	0.7				
	7	1	127.851	36.442	0.0	0.0	1	1.1	0.0	230.0	1	1.3	0.7				
	8	1	185.63	52.9055	0.0	0.0	1	1.1	0.0	230.0	1	1.3	0.7				
	9	1	167.4945	47.7375	0.0	0.0	1	1.1	0.0	230.0	1	1.3	0.7				
	10	1	69.084	19.6935	0.0	0.0	1	1.1	0.0	230.0	1	1.3	0.7				
	11	1	180.4335	51.4235	0.0	0.0	1	1.1	0.0	230.0	1	1.3	0.7				
	12	1	119.035	33.9245	0.0	0.0	1	1.1	0.0	230.0	1	1.3	0.7				
	13	1	168.4065	47.994	0.0	0.0	1	1.1	0.0	230.0	1	1.3	0.7				
	14	1	189.2115	53.92199999999999	0.0	0.0	1	1.1	0.0	230.0	1	1.3	0.7				
	15	1	169.518	48.3075	0.0	0.0	1	1.1	0.0	230.0	1	1.3	0.7				
	16	1	113.78150000000001	32.4235	0.0	0.0	1	1.1	0.0	230.0	1	1.3	0.7				
	17	1	154.7455	44.099	0.0	0.0	1	1.1	0.0	230.0	1	1.3	0.7				
	18	1	123.177	35.1025	0.0	0.0	1	1.1	0.0	230.0	1	1.3	0.7				
	19	1	153.5865	43.776	0.0	0.0	1	1.1	0.0	230.0	1	1.3	0.7				
	20	1	94.297	26.875499999999995	0.0	0.0	1	1.1	0.0	230.0	1	1.3	0.7				
	21	1	171.0855	48.7635	0.0	0.0	1	1.1	0.0	230.0	1	1.3	0.7				
	22	1	185.2405	52.7915	0.0	155.01	1	1.1	0.0	230.0	1	1.3	0.7				
	23	1	177.821	50.6825	0.0	0.0	1	1.1	0.0	230.0	1	1.3	0.7				
	24	1	57.703	16.4445	0.0	0.0	1	1.1	0.0	230.0	1	1.3	0.7				
	25	1	37.563	10.7065	0.0	0.0	1	1.1	0.0	230.0	1	1.3	0.7				
	26	1	153.6815	43.8045	0.0	151.3	1	1.1	0.0	230.0	1	1.3	0.7				
	27	1	189.1355	53.903	0.0	0.0	1	1.1	0.0	230.0	1	1.3	0.7				
	28	1	124.564	35.5015	0.0	0.0	1	1.1	0.0	230.0	1	1.3	0.7				
	29	1	134.406	38.304	0.0	0.0	1	1.1	0.0	230.0	1	1.3	0.7				
	30	1	142.0345	40.4795	0.0	0.0	1	1.1	0.0	230.0	1	1.3	0.7				
	31	1	146.129	41.648	0.0	0.0	1	1.1	0.0	230.0	1	1.3	0.7				
	32	1	159.144	45.353	0.0	0.0	1	1.1	0.0	230.0	1	1.3	0.7				
	33	1	189.1355	53.903	0.0	0.0	1	1.1	0.0	230.0	1	1.3	0.7				
	34	1	150.1095	42.7785	0.0	0.0	1	1.1	0.0	230.0	1	1.3	0.7				
	35	1	157.7475	44.954	0.0	0.0	1	1.1	0.0	230.0	1	1.3	0.7				
	36	1	9.5	2.7075	0.0	0.0	1	1.1	0.0	230.0	1	1.3	0.7				
	37	1	83.1535	23.693	0.0	0.0	1	1.1	0.0	230.0	1	1.3	0.7				
	38	1	40.698	11.5995	0.0	0.0	1	1.1	0.0	230.0	1	1.3	0.7				
	39	1	64.8755	18.487	0.0	0.0	1	1.1	0.0	230.0	1	1.3	0.7				
	40	1	177.498	50.5875	0.0	0.0	1	1.1	0.0	230.0	1	1.3	0.7				
	41	1	153.1685	43.6525	0.0	0.0	1	1.1	0.0	230.0	1	1.3	0.7				
	42	1	148.143	42.218	0.0	0.0	1	1.1	0.0	230.0	1	1.3	0.7				
	43	1	179.341	51.11	0.0	0.0	1	1.1	0.0	230.0	1	1.3	0.7				
	44	1	109.11699999999999	31.103	0.0	0.0	1	1.1	0.0	230.0	1	1.3	0.7				
	45	1	187.5395	53.447	0.0	0.0	1	1.1	0.0	230.0	1	1.3	0.7				
	46	1	88.787	25.307999999999996	0.0	0.0	1	1.1	0.0	230.0	1	1.3	0.7				
	47	1	172.52	49.172	0.0	0.0	1	1.1	0.0	230.0	1	1.3	0.7				
	48	1	29.830000000000002	8.5025	0.0	0.0	1	1.1	0.0	230.0	1	1.3	0.7				
	49	1	189.487	54.0075	0.0	0.0	1	1.1	0.0	230.0	1	1.3	0.7				
	50	1	146.7845	41.8285	0.0	0.0	1	1.1	0.0	230.0	1	1.3	0.7				
	51	1	170.24	48.5165	0.0	0.0	1	1.1	0.0	230.0	1	1.3	0.7				
	52	1	120.479	34.333	0.0	0.0	1	1.1	0.0	230.0	1	1.3	0.7				
	53	1	175.0945	49.9035	0.0	0.0	1	1.1	0.0	230.0	1	1.3	0.7				
	54	1	176.32	50.255	0.0	0.0	1	1.1	0.0	230.0	1	1.3	0.7				
	55	1	106.99849999999999	30.495	0.0	0.0	1	1.1	0.0	230.0	1	1.3	0.7				
	56	1	168.15	47.918	0.0	0.0	1	1.1	0.0	230.0	1	1.3	0.7				
	57	1	123.177	35.1025	0.0	0.0	1	1.1	0.0	230.0	1	1.3	0.7				
	58	1	62.7095	17.8695	0.0	0.0	1	1.1	0.0	230.0	1	1.3	0.7				
	59	1	115.4345	32.8985	0.0	0.0	1	1.1	0.0	230.0	1	1.3	0.7				
	60	1	117.8665	33.592	0.0	0.0	1	1.1	0.0	230.0	1	1.3	0.7				
	61	1	125.1435	35.663	0.0	0.0	1	1.1	0.0	230.0	1	1.3	0.7				
	62	1	157.871	44.992	0.0	0.0	1	1.1	0.0	230.0	1	1.3	0.7				
	63	1	176.168	50.2075	0.0	0.0	1	1.1	0.0	230.0	1	1.3	0.7				
	64	1	184.167	52.4875	0.0	0.0	1	1.1	0.0	230.0	1	1.3	0.7				
	65	1	112.80299999999998	32.148	0.0	0.0	1	1.1	0.0	230.0	1	1.3	0.7				
	66	1	84.341	24.035	0.0	0.0	1	1.1	0.0	230.0	1	1.3	0.7				
	67	1	146.4425	41.7335	0.0	0.0	1	1.1	0.0	230.0	1	1.3	0.7				
	68	1	63.3555	18.0595	0.0	0.0	1	1.1	0.0	230.0	1	1.3	0.7				
	69	1	61.5125	17.5275	0.0	0.0	1	1.1	0.0	230.0	1	1.3	0.7				
	70	1	32.205	9.177	0.0	0.0	1	1.1	0.0	230.0	1	1.3	0.7				
	71	1	187.9575	53.570499999999996	0.0	0.0	1	1.1	0.0	230.0	1	1.3	0.7				
	72	1	157.871	44.992	0.0	0.0	1	1.1	0.0	230.0	1	1.3	0.7				
	73	1	83.5335	23.807	0.0	0.0	1	1.1	0.0	230.0	1	1.3	0.7				
	74	1	165.148	47.0725	0.0	0.0	1	1.1	0.0	230.0	1	1.3	0.7				
	75	1	139.5835	39.7765	0.0	0.0	1	1.1	0.0	230.0	1	1.3	0.7				
	76	1	160.1225	45.638	0.0	0.0	1	1.1	0.0	230.0	1	1.3	0.7				
	77	1	140.2485	39.976	0.0	0.0	1	1.1	0.0	230.0	1	1.3	0.7				
	78	1	168.834	48.1175	0.0	0.0	1	1.1	0.0	230.0	1	1.3	0.7				
	79	1	181.6685	51.77499999999999	0.0	152.42	1	1.1	0.0	230.0	1	1.3	0.7				
	80	1	159.448	45.4385	0.0	0.0	1	1.1	0.0	230.0	1	1.3	0.7				
	81	1	155.553	44.3365	0.0	0.0	1	1.1	0.0	230.0	1	1.3	0.7				
	82	1	144.932	41.306	0.0	0.0	1	1.1	0.0	230.0	1	1.3	0.7				
	83	1	79.3345	22.61	0.0	0.0	1	1.1	0.0	230.0	1	1.3	0.7				
	84	1	63.821	18.1925	0.0	0.0	1	1.1	0.0	230.0	1	1.3	0.7				
	85	1	61.62649999999999	17.5655	0.0	0.0	1	1.1	0.0	230.0	1	1.3	0.7				
	86	1	177.555	50.6065	0.0	0.0	1	1.1	0.0	230.0	1	1.3	0.7				
	87	1	91.3425	26.030000000000005	0.0	0.0	1	1.1	0.0	230.0	1	1.3	0.7				
	88	1	62.4245	17.7935	0.0	0.0	1	1.1	0.0	230.0	1	1.3	0.7				
	89	1	170.5155	48.5925	0.0	0.0	1	1.1	0.0	230.0	1	1.3	0.7				
	90	1	188.9835	53.86500000000001	0.0	0.0	1	1.1	0.0	230.0	1	1.3	0.7				
	91	1	62.3675	17.7745	0.0	0.0	1	1.1	0.0	230.0	1	1.3	0.7				
	92	1	0.0	0.0	0.0	0.0	1	1.1	0.0	500.0	1	1.3	0.7				
	93	1	0.0	0.0	0.0	0.0	1	1.1	0.0	500.0	1	1.3	0.7				
	94	1	0.0	0.0	0.0	0.0	1	1.1	0.0	500.0	1	1.3	0.7				
	95	1	0.0	0.0	0.0	0.0	1	1.1	0.0	500.0	1	1.3	0.7				
	96	1	0.0	0.0	0.0	0.0	1	1.1	0.0	500.0	1	1.3	0.7				
	97	1	0.0	0.0	0.0	0.0	1	1.1	0.0	500.0	1	1.3	0.7				
	98	1	0.0	0.0	0.0	0.0	1	1.1	0.0	500.0	1	1.3	0.7				
	99	1	0.0	0.0	0.0	0.0	1	1.1	0.0	500.0	1	1.3	0.7				
	100	1	0.0	0.0	0.0	0.0	1	1.1	0.0	500.0	1	1.3	0.7				
	101	1	0.0	0.0	0.0	0.0	1	1.1	0.0	500.0	1	1.3	0.7				
	102	1	0.0	0.0	0.0	0.0	1	1.1	0.0	500.0	1	1.3	0.7				
	103	1	0.0	0.0	0.0	0.0	1	1.1	0.0	500.0	1	1.3	0.7				
	104	1	0.0	0.0	0.0	0.0	1	1.1	0.0	500.0	1	1.3	0.7				
	105	1	0.0	0.0	0.0	0.0	1	1.1	0.0	500.0	1	1.3	0.7				
	106	1	0.0	0.0	0.0	0.0	1	1.1	0.0	500.0	1	1.3	0.7				
	107	1	0.0	0.0	0.0	0.0	1	1.1	0.0	500.0	1	1.3	0.7				
	108	1	0.0	0.0	0.0	0.0	1	1.1	0.0	500.0	1	1.3	0.7				
	109	1	0.0	0.0	0.0	0.0	1	1.1	0.0	500.0	1	1.3	0.7				
	110	2	0.0	0.0	0.0	0.0	1	1.1	0.0	13.8	1	1.3	0.7				
	111	2	0.0	0.0	0.0	0.0	1	1.1	0.0	13.8	1	1.3	0.7				
	112	2	0.0	0.0	0.0	0.0	1	1.1	0.0	13.8	1	1.3	0.7				
	113	2	0.0	0.0	0.0	0.0	1	1.1	0.0	13.8	1	1.3	0.7				
	114	2	0.0	0.0	0.0	0.0	1	1.1	0.0	13.8	1	1.3	0.7				
	115	2	0.0	0.0	0.0	0.0	1	1.1	0.0	13.8	1	1.3	0.7				
	116	2	0.0	0.0	0.0	0.0	1	1.1	0.0	13.8	1	1.3	0.7				
	117	2	0.0	0.0	0.0	0.0	1	1.1	0.0	13.8	1	1.3	0.7				
	118	2	0.0	0.0	0.0	0.0	1	1.1	0.0	13.8	1	1.3	0.7				
	119	2	0.0	0.0	0.0	0.0	1	1.1	0.0	13.8	1	1.3	0.7				
	120	2	0.0	0.0	0.0	0.0	1	1.1	0.0	13.8	1	1.3	0.7				
	121	2	0.0	0.0	0.0	0.0	1	1.1	0.0	13.8	1	1.3	0.7				
	122	2	0.0	0.0	0.0	0.0	1	1.1	0.0	13.8	1	1.3	0.7				
	123	2	0.0	0.0	0.0	0.0	1	1.1	0.0	13.8	1	1.3	0.7				
	124	2	0.0	0.0	0.0	0.0	1	1.1	0.0	13.8	1	1.3	0.7				
	125	2	0.0	0.0	0.0	0.0	1	1.1	0.0	13.8	1	1.3	0.7				
	126	2	0.0	0.0	0.0	0.0	1	1.1	0.0	13.8	1	1.3	0.7				
	127	2	0.0	0.0	0.0	0.0	1	1.1	0.0	13.8	1	1.3	0.7				
	128	2	0.0	0.0	0.0	0.0	1	1.1	0.0	13.8	1	1.3	0.7				
	129	2	0.0	0.0	0.0	0.0	1	1.1	0.0	13.8	1	1.3	0.7				
	130	2	0.0	0.0	0.0	0.0	1	1.1	0.0	13.8	1	1.3	0.7				
	131	2	0.0	0.0	0.0	0.0	1	1.1	0.0	13.8	1	1.3	0.7				
	132	3	0.0	0.0	0.0	0.0	1	1.1	0.0	13.8	1	1.3	0.7				
	133	2	0.0	0.0	0.0	0.0	1	1.1	0.0	13.8	1	1.3	0.7				
	134	2	0.0	0.0	0.0	0.0	1	1.1	0.0	13.8	1	1.3	0.7				
	135	2	0.0	0.0	0.0	0.0	1	1.1	0.0	13.8	1	1.3	0.7				
	136	1	0.0	0.0	0.0	0.0	1	1.1	0.0	230.0	1	1.3	0.7				
	137	1	0.0	0.0	0.0	0.0	1	1.1	0.0	500.0	1	1.3	0.7				
	138	1	0.0	0.0	0.0	0.0	1	1.1	0.0	230.0	1	1.3	0.7				
	139	1	0.0	0.0	0.0	0.0	1	1.1	0.0	500.0	1	1.3	0.7				
	140	1	0.0	0.0	0.0	0.0	1	1.1	0.0	230.0	1	1.3	0.7				
	141	1	0.0	0.0	0.0	0.0	1	1.1	0.0	230.0	1	1.3	0.7				
	142	1	0.0	0.0	0.0	0.0	1	1.1	0.0	500.0	1	1.3	0.7				
	143	1	0.0	0.0	0.0	0.0	1	1.1	0.0	230.0	1	1.3	0.7				
	144	1	0.0	0.0	0.0	0.0	1	1.1	0.0	500.0	1	1.3	0.7				
	145	1	0.0	0.0	0.0	0.0	1	1.1	0.0	230.0	1	1.3	0.7				
	146	1	0.0	0.0	0.0	0.0	1	1.1	0.0	500.0	1	1.3	0.7				
	147	1	0.0	0.0	0.0	0.0	1	1.1	0.0	230.0	1	1.3	0.7				
	148	1	0.0	0.0	0.0	0.0	1	1.1	0.0	500.0	1	1.3	0.7				
	149	1	0.0	0.0	0.0	0.0	1	1.1	0.0	230.0	1	1.3	0.7				
	150	1	0.0	0.0	0.0	0.0	1	1.1	0.0	500.0	1	1.3	0.7				
];

%% generator data
%    bus    Pg    Qg    Qmax    Qmin    Vg    mBase    status    Pmax    Pmin    Pc1    Pc2    Qc1min    Qc1max    Qc2min    Qc2max    ramp_agc    ramp_10    ramp_30    ramp_q    apf
mpc.gen = [
	1	1098.72	261.28	952.77	-186.22	1.1	100.0	1	2042.6	0.0	0.0	0.0	0.0	0.0	0.0	0.0	0.0	0.0	0.0	-1000.0	0.0				
	110	366.9	170.41	382.3	-43.96	1.1	100.0	1	683.1	0.0	0.0	0.0	0.0	0.0	0.0	0.0	0.0	0.0	0.0	-1000.0	0.0				
	111	243.96	113.31	174.64	-22.21	1.1	100.0	1	454.2	0.0	0.0	0.0	0.0	0.0	0.0	0.0	0.0	0.0	0.0	-1000.0	0.0				
	112	692.45	321.61	601.35	-117.54	1.1	100.0	1	1289.2	0.0	0.0	0.0	0.0	0.0	0.0	0.0	0.0	0.0	0.0	-1000.0	0.0				
	113	340.21	208.69	354.48	-40.77	1.1	100.0	1	633.4	0.0	0.0	0.0	0.0	0.0	0.0	0.0	0.0	0.0	0.0	-1000.0	0.0				
	114	340.21	208.69	354.48	-40.77	1.1	100.0	1	633.4	0.0	0.0	0.0	0.0	0.0	0.0	0.0	0.0	0.0	0.0	-1000.0	0.0				
	115	147.81	90.67	105.81	-13.459999999999999	1.1	100.0	1	275.2	0.0	0.0	0.0	0.0	0.0	0.0	0.0	0.0	0.0	0.0	-1000.0	0.0				
	116	364.81	86.87	380.11	-43.71	1.1	100.0	1	679.2	0.0	0.0	0.0	0.0	0.0	0.0	0.0	0.0	0.0	0.0	-1000.0	0.0				
	117	364.81	86.87	380.11	-43.71	1.1	100.0	1	679.2	0.0	0.0	0.0	0.0	0.0	0.0	0.0	0.0	0.0	0.0	-1000.0	0.0				
	118	364.81	86.87	380.11	-43.71	1.1	100.0	1	679.2	0.0	0.0	0.0	0.0	0.0	0.0	0.0	0.0	0.0	0.0	-1000.0	0.0				
	119	1097.11	261.24	952.77	-186.22	1.1	100.0	1	2042.6	0.0	0.0	0.0	0.0	0.0	0.0	0.0	0.0	0.0	0.0	-1000.0	0.0				
	120	238.34999999999997	85.03	170.62	-21.7	1.1	100.0	1	443.75	0.0	0.0	0.0	0.0	0.0	0.0	0.0	0.0	0.0	0.0	-1000.0	0.0				
	121	238.34999999999997	85.03	170.62	-21.7	1.1	100.0	1	443.75	0.0	0.0	0.0	0.0	0.0	0.0	0.0	0.0	0.0	0.0	-1000.0	0.0				
	122	711.68	253.89	618.04	-120.8	1.1	100.0	1	1325.0	0.0	0.0	0.0	0.0	0.0	0.0	0.0	0.0	0.0	0.0	-1000.0	0.0				
	123	711.68	253.89	618.04	-120.8	1.1	100.0	1	1325.0	0.0	0.0	0.0	0.0	0.0	0.0	0.0	0.0	0.0	0.0	-1000.0	0.0				
	124	363.92	175.61	379.19	-43.61	1.1	100.0	1	677.55	0.0	0.0	0.0	0.0	0.0	0.0	0.0	0.0	0.0	0.0	-1000.0	0.0				
	125	363.92	175.61	379.19	-43.61	1.1	100.0	1	677.55	0.0	0.0	0.0	0.0	0.0	0.0	0.0	0.0	0.0	0.0	-1000.0	0.0				
	126	363.92	175.61	379.19	-43.61	1.1	100.0	1	677.55	0.0	0.0	0.0	0.0	0.0	0.0	0.0	0.0	0.0	0.0	-1000.0	0.0				
	127	363.92	175.61	379.19	-43.61	1.1	100.0	1	677.55	0.0	0.0	0.0	0.0	0.0	0.0	0.0	0.0	0.0	0.0	-1000.0	0.0				
	128	545.17	263.07	473.45	-92.54	1.1	100.0	1	1015.0	0.0	0.0	0.0	0.0	0.0	0.0	0.0	0.0	0.0	0.0	-1000.0	0.0				
	129	184.82	91.05	132.3	-16.83	1.1	100.0	1	344.1	0.0	0.0	0.0	0.0	0.0	0.0	0.0	0.0	0.0	0.0	-1000.0	0.0				
	130	428.08000000000004	99.36	306.44	-38.98	1.1	100.0	1	797.0	0.0	0.0	0.0	0.0	0.0	0.0	0.0	0.0	0.0	0.0	-1000.0	0.0				
	131	428.08000000000004	99.36	306.44	-38.98	1.1	100.0	1	797.0	0.0	0.0	0.0	0.0	0.0	0.0	0.0	0.0	0.0	0.0	-1000.0	0.0				
	132	428.08000000000004	99.36	306.44	-38.98	1.1	100.0	1	797.0	0.0	0.0	0.0	0.0	0.0	0.0	0.0	0.0	0.0	0.0	-1000.0	0.0				
	133	996.5899999999999	231.32000000000002	683.44	-150.88	1.1	100.0	1	1855.45	0.0	0.0	0.0	0.0	0.0	0.0	0.0	0.0	0.0	0.0	-1000.0	0.0				
	134	996.5899999999999	231.32000000000002	683.44	-150.88	1.1	100.0	1	1855.45	0.0	0.0	0.0	0.0	0.0	0.0	0.0	0.0	0.0	0.0	-1000.0	0.0				
	135	24.55	17.57	17.57	-2.24	1.1	100.0	1	45.7	0.0	0.0	0.0	0.0	0.0	0.0	0.0	0.0	0.0	0.0	-1000.0	0.0				
];

%% branch data
%    fbus    tbus    r    x    b    rateA    rateB    rateC    ratio    angle    status    angmin    angmax
mpc.branch = [
	2	21	0.00318	0.02264	0.04154	402.4	0.0	0.0	1.0	0.0	1	-29.999999999999996	29.999999999999996								
	2	14	0.00546	0.0389	0.07137	402.4	0.0	0.0	1.0	0.0	1	-29.999999999999996	29.999999999999996								
	4	30	0.00111	0.0079	0.01449	402.4	0.0	0.0	1.0	0.0	1	-29.999999999999996	29.999999999999996								
	4	19	0.00147	0.01048	0.01922	402.4	0.0	0.0	1.0	0.0	1	-29.999999999999996	29.999999999999996								
	4	18	0.00118	0.00838	0.01538	402.4	0.0	0.0	1.0	0.0	1	-29.999999999999996	29.999999999999996								
	5	16	0.00254	0.01812	0.03325	402.4	0.0	0.0	1.0	0.0	1	-29.999999999999996	29.999999999999996								
	5	30	0.00163	0.01161	0.0213	402.4	0.0	0.0	1.0	0.0	1	-29.999999999999996	29.999999999999996								
	6	14	0.00521	0.03709	0.06805	402.4	0.0	0.0	1.0	0.0	1	-29.999999999999996	29.999999999999996								
	6	13	0.00282	0.02007	0.03682	402.4	0.0	0.0	1.0	0.0	1	-29.999999999999996	29.999999999999996								
	6	28	0.00255	0.01817	0.03334	402.4	0.0	0.0	1.0	0.0	1	-29.999999999999996	29.999999999999996								
	7	38	0.00589	0.04194	0.07695	402.4	0.0	0.0	1.0	0.0	1	-29.999999999999996	29.999999999999996								
	7	8	0.0066	0.047	0.08623	402.4	0.0	0.0	1.0	0.0	1	-29.999999999999996	29.999999999999996								
	8	23	0.00224	0.01597	0.02929	402.4	0.0	0.0	1.0	0.0	1	-29.999999999999996	29.999999999999996								
	9	39	0.00549	0.03908	0.0717	402.4	0.0	0.0	1.0	0.0	1	-29.999999999999996	29.999999999999996								
	9	23	0.00568	0.04045	0.07421	402.4	0.0	0.0	1.0	0.0	1	-29.999999999999996	29.999999999999996								
	9	26	0.00468	0.03335	0.06118	402.4	0.0	0.0	1.0	0.0	1	-29.999999999999996	29.999999999999996								
	10	141	0.00437	0.03115	0.05716	402.4	0.0	0.0	1.0	0.0	1	-29.999999999999996	29.999999999999996								
	10	25	0.00591	0.04211	0.07726	402.4	0.0	0.0	1.0	0.0	1	-29.999999999999996	29.999999999999996								
	11	14	0.00252	0.01798	0.03299	402.4	0.0	0.0	1.0	0.0	1	-29.999999999999996	29.999999999999996								
	12	13	0.00516	0.03674	0.06741	402.4	0.0	0.0	1.0	0.0	1	-29.999999999999996	29.999999999999996								
	12	143	0.00651	0.04634	0.08502	402.4	0.0	0.0	1.0	0.0	1	-29.999999999999996	29.999999999999996								
	13	16	0.0027	0.01925	0.03532	402.4	0.0	0.0	1.0	0.0	1	-29.999999999999996	29.999999999999996								
	15	17	0.0025	0.01781	0.03267	402.4	0.0	0.0	1.0	0.0	1	-29.999999999999996	29.999999999999996								
	16	26	0.00314	0.02239	0.04107	402.4	0.0	0.0	1.0	0.0	1	-29.999999999999996	29.999999999999996								
	17	21	0.00185	0.01316	0.02415	402.4	0.0	0.0	1.0	0.0	1	-29.999999999999996	29.999999999999996								
	18	22	0.00071	0.00506	0.00928	402.4	0.0	0.0	1.0	0.0	1	-29.999999999999996	29.999999999999996								
	19	23	0.00202	0.01436	0.02635	402.4	0.0	0.0	1.0	0.0	1	-29.999999999999996	29.999999999999996								
	19	3	0.00545	0.0388	0.07119	402.4	0.0	0.0	1.0	0.0	1	-29.999999999999996	29.999999999999996								
	20	143	0.00686	0.04887	0.08966	402.4	0.0	0.0	1.0	0.0	1	-29.999999999999996	29.999999999999996								
	21	29	0.00112	0.00799	0.01466	402.4	0.0	0.0	1.0	0.0	1	-29.999999999999996	29.999999999999996								
	22	30	0.00119	0.0085	0.0156	402.4	0.0	0.0	1.0	0.0	1	-29.999999999999996	29.999999999999996								
	22	29	0.00059	0.00419	0.00769	402.4	0.0	0.0	1.0	0.0	1	-29.999999999999996	29.999999999999996								
	22	30	0.00119	0.0085	0.0156	402.4	0.0	0.0	1.0	0.0	1	-29.999999999999996	29.999999999999996								
	24	143	0.00068	0.00482	0.00884	402.4	0.0	0.0	1.0	0.0	1	-29.999999999999996	29.999999999999996								
	28	29	0.00109	0.00775	0.01422	402.4	0.0	0.0	1.0	0.0	1	-29.999999999999996	29.999999999999996								
	31	41	0.00388	0.02764	0.05072	402.4	0.0	0.0	1.0	0.0	1	-29.999999999999996	29.999999999999996								
	31	38	0.00561	0.03996	0.07331	402.4	0.0	0.0	1.0	0.0	1	-29.999999999999996	29.999999999999996								
	31	40	0.00358	0.02551	0.04679	402.4	0.0	0.0	1.0	0.0	1	-29.999999999999996	29.999999999999996								
	32	36	0.00856	0.061	0.11191	402.4	0.0	0.0	1.0	0.0	1	-29.999999999999996	29.999999999999996								
	32	40	0.00178	0.01265	0.0232	402.4	0.0	0.0	1.0	0.0	1	-29.999999999999996	29.999999999999996								
	33	37	0.00539	0.0384	0.07046	402.4	0.0	0.0	1.0	0.0	1	-29.999999999999996	29.999999999999996								
	34	36	0.00527	0.03754	0.06887	402.4	0.0	0.0	1.0	0.0	1	-29.999999999999996	29.999999999999996								
	35	37	0.0046	0.03276	0.0601	402.4	0.0	0.0	1.0	0.0	1	-29.999999999999996	29.999999999999996								
	35	145	0.00099	0.00706	0.01295	402.4	0.0	0.0	1.0	0.0	1	-29.999999999999996	29.999999999999996								
	35	145	0.00099	0.00706	0.01295	402.4	0.0	0.0	1.0	0.0	1	-29.999999999999996	29.999999999999996								
	35	34	0.00334	0.0238	0.04367	402.4	0.0	0.0	1.0	0.0	1	-29.999999999999996	29.999999999999996								
	37	38	0.00504	0.03592	0.06589	402.4	0.0	0.0	1.0	0.0	1	-29.999999999999996	29.999999999999996								
	40	41	0.00173	0.01229	0.02255	402.4	0.0	0.0	1.0	0.0	1	-29.999999999999996	29.999999999999996								
	42	43	0.00133	0.0095	0.01743	402.4	0.0	0.0	1.0	0.0	1	-29.999999999999996	29.999999999999996								
	44	42	0.00585	0.04163	0.07638	402.4	0.0	0.0	1.0	0.0	1	-29.999999999999996	29.999999999999996								
	44	149	0.00359	0.02554	0.04685	402.4	0.0	0.0	1.0	0.0	1	-29.999999999999996	29.999999999999996								
	45	48	0.0036	0.02565	0.04706	402.4	0.0	0.0	1.0	0.0	1	-29.999999999999996	29.999999999999996								
	45	42	0.00331	0.02359	0.04328	402.4	0.0	0.0	1.0	0.0	1	-29.999999999999996	29.999999999999996								
	46	149	0.00221	0.01574	0.02887	402.4	0.0	0.0	1.0	0.0	1	-29.999999999999996	29.999999999999996								
	46	47	0.00354	0.02518	0.0462	402.4	0.0	0.0	1.0	0.0	1	-29.999999999999996	29.999999999999996								
	47	48	0.00858	0.0611	0.1121	402.4	0.0	0.0	1.0	0.0	1	-29.999999999999996	29.999999999999996								
	47	43	0.00291	0.02073	0.03803	402.4	0.0	0.0	1.0	0.0	1	-29.999999999999996	29.999999999999996								
	49	52	0.00307	0.0219	0.04018	402.4	0.0	0.0	1.0	0.0	1	-29.999999999999996	29.999999999999996								
	49	63	0.00238	0.01695	0.0311	402.4	0.0	0.0	1.0	0.0	1	-29.999999999999996	29.999999999999996								
	50	56	0.00261	0.01861	0.03415	402.4	0.0	0.0	1.0	0.0	1	-29.999999999999996	29.999999999999996								
	50	55	0.00491	0.03494	0.0641	402.4	0.0	0.0	1.0	0.0	1	-29.999999999999996	29.999999999999996								
	50	64	0.00284	0.02024	0.03713	402.4	0.0	0.0	1.0	0.0	1	-29.999999999999996	29.999999999999996								
	51	149	0.00381	0.02716	0.04983	402.4	0.0	0.0	1.0	0.0	1	-29.999999999999996	29.999999999999996								
	51	58	0.00553	0.03938	0.07224	402.4	0.0	0.0	1.0	0.0	1	-29.999999999999996	29.999999999999996								
	51	54	0.00322	0.02295	0.04211	402.4	0.0	0.0	1.0	0.0	1	-29.999999999999996	29.999999999999996								
	52	60	0.00386	0.02746	0.05038	402.4	0.0	0.0	1.0	0.0	1	-29.999999999999996	29.999999999999996								
	52	56	0.00241	0.01714	0.03145	402.4	0.0	0.0	1.0	0.0	1	-29.999999999999996	29.999999999999996								
	53	138	0.00193	0.01376	0.02525	402.4	0.0	0.0	1.0	0.0	1	-29.999999999999996	29.999999999999996								
	53	138	0.00193	0.01376	0.02525	402.4	0.0	0.0	1.0	0.0	1	-29.999999999999996	29.999999999999996								
	53	62	0.00205	0.01459	0.02676	402.4	0.0	0.0	1.0	0.0	1	-29.999999999999996	29.999999999999996								
	54	60	0.00425	0.03027	0.05554	402.4	0.0	0.0	1.0	0.0	1	-29.999999999999996	29.999999999999996								
	55	138	0.00778	0.05539	0.10163	402.4	0.0	0.0	1.0	0.0	1	-29.999999999999996	29.999999999999996								
	56	63	0.00206	0.01466	0.02689	402.4	0.0	0.0	1.0	0.0	1	-29.999999999999996	29.999999999999996								
	56	58	0.00624	0.04441	0.08147	402.4	0.0	0.0	1.0	0.0	1	-29.999999999999996	29.999999999999996								
	57	90	0.00592	0.04216	0.07735	402.4	0.0	0.0	1.0	0.0	1	-29.999999999999996	29.999999999999996								
	57	59	0.00549	0.0391	0.07173	402.4	0.0	0.0	1.0	0.0	1	-29.999999999999996	29.999999999999996								
	59	138	0.0015	0.01071	0.01965	402.4	0.0	0.0	1.0	0.0	1	-29.999999999999996	29.999999999999996								
	61	33	0.00607	0.04322	0.0793	402.4	0.0	0.0	1.0	0.0	1	-29.999999999999996	29.999999999999996								
	61	62	0.00323	0.02303	0.04225	402.4	0.0	0.0	1.0	0.0	1	-29.999999999999996	29.999999999999996								
	62	64	0.00141	0.01006	0.01846	402.4	0.0	0.0	1.0	0.0	1	-29.999999999999996	29.999999999999996								
	63	64	0.00139	0.00992	0.0182	402.4	0.0	0.0	1.0	0.0	1	-29.999999999999996	29.999999999999996								
	65	86	0.00471	0.03356	0.06158	402.4	0.0	0.0	1.0	0.0	1	-29.999999999999996	29.999999999999996								
	65	83	0.00502	0.03578	0.06565	402.4	0.0	0.0	1.0	0.0	1	-29.999999999999996	29.999999999999996								
	65	73	0.00466	0.03318	0.06087	402.4	0.0	0.0	1.0	0.0	1	-29.999999999999996	29.999999999999996								
	66	71	0.00212	0.01509	0.02769	402.4	0.0	0.0	1.0	0.0	1	-29.999999999999996	29.999999999999996								
	66	67	0.0039	0.02777	0.05095	402.4	0.0	0.0	1.0	0.0	1	-29.999999999999996	29.999999999999996								
	67	136	0.00407	0.02896	0.05313	402.4	0.0	0.0	1.0	0.0	1	-29.999999999999996	29.999999999999996								
	67	136	0.00407	0.02896	0.05313	402.4	0.0	0.0	1.0	0.0	1	-29.999999999999996	29.999999999999996								
	67	75	0.00528	0.03757	0.06893	402.4	0.0	0.0	1.0	0.0	1	-29.999999999999996	29.999999999999996								
	68	85	0.00559	0.03982	0.07306	402.4	0.0	0.0	1.0	0.0	1	-29.999999999999996	29.999999999999996								
	68	73	0.00553	0.0394	0.07228	402.4	0.0	0.0	1.0	0.0	1	-29.999999999999996	29.999999999999996								
	69	87	0.00541	0.03855	0.07074	402.4	0.0	0.0	1.0	0.0	1	-29.999999999999996	29.999999999999996								
	69	70	0.00581	0.04139	0.07594	402.4	0.0	0.0	1.0	0.0	1	-29.999999999999996	29.999999999999996								
	70	136	0.00168	0.01199	0.02199	402.4	0.0	0.0	1.0	0.0	1	-29.999999999999996	29.999999999999996								
	70	72	0.0078	0.05557	0.10196	402.4	0.0	0.0	1.0	0.0	1	-29.999999999999996	29.999999999999996								
	71	74	0.00108	0.00769	0.01411	402.4	0.0	0.0	1.0	0.0	1	-29.999999999999996	29.999999999999996								
	71	74	0.00108	0.00769	0.01411	402.4	0.0	0.0	1.0	0.0	1	-29.999999999999996	29.999999999999996								
	71	72	0.00248	0.01768	0.03243	402.4	0.0	0.0	1.0	0.0	1	-29.999999999999996	29.999999999999996								
	71	82	0.00174	0.01238	0.02271	402.4	0.0	0.0	1.0	0.0	1	-29.999999999999996	29.999999999999996								
	73	136	0.0055	0.03917	0.07187	402.4	0.0	0.0	1.0	0.0	1	-29.999999999999996	29.999999999999996								
	74	78	0.00096	0.00682	0.01252	402.4	0.0	0.0	1.0	0.0	1	-29.999999999999996	29.999999999999996								
	75	78	0.00143	0.01017	0.01866	402.4	0.0	0.0	1.0	0.0	1	-29.999999999999996	29.999999999999996								
	76	79	0.00103	0.00733	0.01345	402.4	0.0	0.0	1.0	0.0	1	-29.999999999999996	29.999999999999996								
	76	78	0.00121	0.00864	0.01586	402.4	0.0	0.0	1.0	0.0	1	-29.999999999999996	29.999999999999996								
	76	77	0.00191	0.01361	0.02497	402.4	0.0	0.0	1.0	0.0	1	-29.999999999999996	29.999999999999996								
	77	81	0.00204	0.01453	0.02666	402.4	0.0	0.0	1.0	0.0	1	-29.999999999999996	29.999999999999996								
	79	80	0.00136	0.00966	0.01772	402.4	0.0	0.0	1.0	0.0	1	-29.999999999999996	29.999999999999996								
	79	81	0.00115	0.0082	0.01504	402.4	0.0	0.0	1.0	0.0	1	-29.999999999999996	29.999999999999996								
	80	82	0.00087	0.00622	0.01141	402.4	0.0	0.0	1.0	0.0	1	-29.999999999999996	29.999999999999996								
	83	20	0.00642	0.04572	0.08389	402.4	0.0	0.0	1.0	0.0	1	-29.999999999999996	29.999999999999996								
	84	24	0.00501	0.03571	0.06552	402.4	0.0	0.0	1.0	0.0	1	-29.999999999999996	29.999999999999996								
	85	84	0.00591	0.04206	0.07716	402.4	0.0	0.0	1.0	0.0	1	-29.999999999999996	29.999999999999996								
	87	147	0.00465	0.0331	0.06073	402.4	0.0	0.0	1.0	0.0	1	-29.999999999999996	29.999999999999996								
	88	147	0.00382	0.02721	0.04992	402.4	0.0	0.0	1.0	0.0	1	-29.999999999999996	29.999999999999996								
	88	89	0.00843	0.06004	0.11016	402.4	0.0	0.0	1.0	0.0	1	-29.999999999999996	29.999999999999996								
	89	26	0.00661	0.04705	0.08632	402.4	0.0	0.0	1.0	0.0	1	-29.999999999999996	29.999999999999996								
	90	91	0.00611	0.04352	0.07984	402.4	0.0	0.0	1.0	0.0	1	-29.999999999999996	29.999999999999996								
	90	25	0.00514	0.03663	0.06721	402.4	0.0	0.0	1.0	0.0	1	-29.999999999999996	29.999999999999996								
	91	25	0.00611	0.04351	0.07983	402.4	0.0	0.0	1.0	0.0	1	-29.999999999999996	29.999999999999996								
	92	100	6.0e-5	0.00126	0.13886	3585.3	0.0	0.0	1.0	0.0	1	-29.999999999999996	29.999999999999996								
	93	97	0.00048	0.01006	1.1105	3585.3	0.0	0.0	1.0	0.0	1	-29.999999999999996	29.999999999999996								
	96	102	0.0001	0.00203	0.22352	3585.3	0.0	0.0	1.0	0.0	1	-29.999999999999996	29.999999999999996								
	96	101	0.0002	0.00428	0.47225	3585.3	0.0	0.0	1.0	0.0	1	-29.999999999999996	29.999999999999996								
	98	108	0.00011	0.00228	0.25174	3585.3	0.0	0.0	1.0	0.0	1	-29.999999999999996	29.999999999999996								
	99	137	0.00044	0.00934	1.03107	3585.3	0.0	0.0	1.0	0.0	1	-29.999999999999996	29.999999999999996								
	103	97	0.00018	0.0039	0.43064	3585.3	0.0	0.0	1.0	0.0	1	-29.999999999999996	29.999999999999996								
	104	137	0.00036	0.00751	0.82922	3585.3	0.0	0.0	1.0	0.0	1	-29.999999999999996	29.999999999999996								
	104	99	0.0001	0.00212	0.23376	3585.3	0.0	0.0	1.0	0.0	1	-29.999999999999996	29.999999999999996								
	105	102	0.00044	0.00931	1.02721	3585.3	0.0	0.0	1.0	0.0	1	-29.999999999999996	29.999999999999996								
	106	102	0.00033	0.00698	0.77057	3585.3	0.0	0.0	1.0	0.0	1	-29.999999999999996	29.999999999999996								
	106	94	0.00048	0.01018	1.12392	3585.3	0.0	0.0	1.0	0.0	1	-29.999999999999996	29.999999999999996								
	107	139	0.00028	0.00588	0.64896	3585.3	0.0	0.0	1.0	0.0	1	-29.999999999999996	29.999999999999996								
	108	101	0.00038	0.00809	0.89305	3585.3	0.0	0.0	1.0	0.0	1	-29.999999999999996	29.999999999999996								
	109	107	0.0004	0.00849	0.93683	3585.3	0.0	0.0	1.0	0.0	1	-29.999999999999996	29.999999999999996								
	109	93	0.0003	0.00625	0.6903	3585.3	0.0	0.0	1.0	0.0	1	-29.999999999999996	29.999999999999996								
	109	92	0.0001	0.00215	0.23729	3585.3	0.0	0.0	1.0	0.0	1	-29.999999999999996	29.999999999999996								
	137	95	0.00031	0.00648	0.71484	3585.3	0.0	0.0	1.0	0.0	1	-29.999999999999996	29.999999999999996								
	139	100	0.00021	0.00435	0.48054	3585.3	0.0	0.0	1.0	0.0	1	-29.999999999999996	29.999999999999996								
	140	39	0.00378	0.02696	0.04946	402.4	0.0	0.0	1.0	0.0	1	-29.999999999999996	29.999999999999996								
	140	27	0.00263	0.0187	0.0343	402.4	0.0	0.0	1.0	0.0	1	-29.999999999999996	29.999999999999996								
	141	17	0.00247	0.01758	0.03226	402.4	0.0	0.0	1.0	0.0	1	-29.999999999999996	29.999999999999996								
	141	17	0.00247	0.01758	0.03226	402.4	0.0	0.0	1.0	0.0	1	-29.999999999999996	29.999999999999996								
	141	15	0.00266	0.01897	0.03481	402.4	0.0	0.0	1.0	0.0	1	-29.999999999999996	29.999999999999996								
	141	3	0.00281	0.02	0.03669	402.4	0.0	0.0	1.0	0.0	1	-29.999999999999996	29.999999999999996								
	142	101	0.00018	0.00377	0.41573	3585.3	0.0	0.0	1.0	0.0	1	-29.999999999999996	29.999999999999996								
	144	108	0.00045	0.00947	1.04538	3585.3	0.0	0.0	1.0	0.0	1	-29.999999999999996	29.999999999999996								
	144	101	0.00067	0.0142	1.56758	3585.3	0.0	0.0	1.0	0.0	1	-29.999999999999996	29.999999999999996								
	144	98	0.0004	0.0084	0.92687	3585.3	0.0	0.0	1.0	0.0	1	-29.999999999999996	29.999999999999996								
	144	95	0.00048	0.01006	1.11046	3585.3	0.0	0.0	1.0	0.0	1	-29.999999999999996	29.999999999999996								
	145	40	0.00218	0.01555	0.02852	402.4	0.0	0.0	1.0	0.0	1	-29.999999999999996	29.999999999999996								
	145	32	0.00242	0.01721	0.03157	402.4	0.0	0.0	1.0	0.0	1	-29.999999999999996	29.999999999999996								
	146	107	0.00035	0.00736	0.81179	3585.3	0.0	0.0	1.0	0.0	1	-29.999999999999996	29.999999999999996								
	146	105	0.00061	0.01292	1.42581	3585.3	0.0	0.0	1.0	0.0	1	-29.999999999999996	29.999999999999996								
	146	94	9.0e-5	0.00197	0.21765	3585.3	0.0	0.0	1.0	0.0	1	-29.999999999999996	29.999999999999996								
	148	95	0.00047	0.00993	1.09577	3585.3	0.0	0.0	1.0	0.0	1	-29.999999999999996	29.999999999999996								
	150	97	0.00026	0.00548	0.60445	3585.3	0.0	0.0	1.0	0.0	1	-29.999999999999996	29.999999999999996								
	150	93	0.00028	0.00589	0.64955	3585.3	0.0	0.0	1.0	0.0	1	-29.999999999999996	29.999999999999996								
	5	21	0.0	-0.01061	0.0	2000.0	0.0	0.0	1.0	0.0	1	-29.999999999999996	29.999999999999996								
	8	102	0.0002	0.016	0.0	1000.0	0.0	0.0	1.0	0.0	1	-29.999999999999996	29.999999999999996								
	11	98	0.0002	0.016	0.0	1000.0	0.0	0.0	1.0	0.0	1	-29.999999999999996	29.999999999999996								
	14	108	0.0002	0.016	0.0	1000.0	0.0	0.0	1.0	0.0	1	-29.999999999999996	29.999999999999996								
	22	101	0.0002	0.016	0.0	1000.0	0.0	0.0	1.0	0.0	1	-29.999999999999996	29.999999999999996								
	22	101	0.0002	0.016	0.0	1000.0	0.0	0.0	1.0	0.0	1	-29.999999999999996	29.999999999999996								
	23	96	0.0002	0.016	0.0	1000.0	0.0	0.0	1.0	0.0	1	-29.999999999999996	29.999999999999996								
	27	106	0.0002	0.016	0.0	1000.0	0.0	0.0	1.0	0.0	1	-29.999999999999996	29.999999999999996								
	33	107	0.0002	0.016	0.0	1000.0	0.0	0.0	1.0	0.0	1	-29.999999999999996	29.999999999999996								
	40	94	0.0002	0.016	0.0	1000.0	0.0	0.0	1.0	0.0	1	-29.999999999999996	29.999999999999996								
	43	97	0.0002	0.016	0.0	1000.0	0.0	0.0	1.0	0.0	1	-29.999999999999996	29.999999999999996								
	45	103	0.0002	0.016	0.0	1000.0	0.0	0.0	1.0	0.0	1	-29.999999999999996	29.999999999999996								
	49	109	0.0002	0.016	0.0	1000.0	0.0	0.0	1.0	0.0	1	-29.999999999999996	29.999999999999996								
	54	93	0.0002	0.016	0.0	1000.0	0.0	0.0	1.0	0.0	1	-29.999999999999996	29.999999999999996								
	63	92	0.0002	0.016	0.0	1000.0	0.0	0.0	1.0	0.0	1	-29.999999999999996	29.999999999999996								
	64	100	0.0002	0.016	0.0	1000.0	0.0	0.0	1.0	0.0	1	-29.999999999999996	29.999999999999996								
	71	104	0.0002	0.016	0.0	1000.0	0.0	0.0	1.0	0.0	1	-29.999999999999996	29.999999999999996								
	79	99	0.0002	0.016	0.0	1000.0	0.0	0.0	1.0	0.0	1	-29.999999999999996	29.999999999999996								
	79	99	0.0002	0.016	0.0	1000.0	0.0	0.0	1.0	0.0	1	-29.999999999999996	29.999999999999996								
	86	95	0.0002	0.016	0.0	1000.0	0.0	0.0	1.0	0.0	1	-29.999999999999996	29.999999999999996								
	90	105	0.0002	0.016	0.0	1000.0	0.0	0.0	1.0	0.0	1	-29.999999999999996	29.999999999999996								
	136	137	0.0002	0.016	0.0	1000.0	0.0	0.0	1.0	0.0	1	-29.999999999999996	29.999999999999996								
	136	137	0.0002	0.016	0.0	1000.0	0.0	0.0	1.0	0.0	1	-29.999999999999996	29.999999999999996								
	137	127	0.00037	0.01476	0.0	677.5	0.0	0.0	1.0	0.0	1	-29.999999999999996	29.999999999999996								
	137	128	0.00025	0.00985	0.0	1015.0	0.0	0.0	1.0	0.0	1	-29.999999999999996	29.999999999999996								
	137	126	0.00037	0.01476	0.0	677.5	0.0	0.0	1.0	0.0	1	-29.999999999999996	29.999999999999996								
	137	125	0.00037	0.01476	0.0	677.5	0.0	0.0	1.0	0.0	1	-29.999999999999996	29.999999999999996								
	137	124	0.00037	0.01476	0.0	677.5	0.0	0.0	1.0	0.0	1	-29.999999999999996	29.999999999999996								
	138	139	0.0002	0.016	0.0	1000.0	0.0	0.0	1.0	0.0	1	-29.999999999999996	29.999999999999996								
	138	139	0.0002	0.016	0.0	1000.0	0.0	0.0	1.0	0.0	1	-29.999999999999996	29.999999999999996								
	139	122	0.00019	0.00755	0.0	1325.0	0.0	0.0	1.0	0.0	1	-29.999999999999996	29.999999999999996								
	139	121	0.00056	0.02254	0.0	443.79999999999995	0.0	0.0	1.0	0.0	1	-29.999999999999996	29.999999999999996								
	139	120	0.00056	0.02254	0.0	443.79999999999995	0.0	0.0	1.0	0.0	1	-29.999999999999996	29.999999999999996								
	139	123	0.00019	0.00755	0.0	1325.0	0.0	0.0	1.0	0.0	1	-29.999999999999996	29.999999999999996								
	140	135	0.00547	0.21882	0.0	45.7	0.0	0.0	1.0	0.0	1	-29.999999999999996	29.999999999999996								
	141	142	0.0002	0.016	0.0	1000.0	0.0	0.0	1.0	0.0	1	-29.999999999999996	29.999999999999996								
	141	142	0.0002	0.016	0.0	1000.0	0.0	0.0	1.0	0.0	1	-29.999999999999996	29.999999999999996								
	142	112	0.00019	0.00776	0.0	1289.2	0.0	0.0	1.0	0.0	1	-29.999999999999996	29.999999999999996								
	142	111	0.00055	0.02202	0.0	454.2	0.0	0.0	1.0	0.0	1	-29.999999999999996	29.999999999999996								
	142	110	0.00037	0.01464	0.0	683.1	0.0	0.0	1.0	0.0	1	-29.999999999999996	29.999999999999996								
	143	144	0.0002	0.016	0.0	1000.0	0.0	0.0	1.0	0.0	1	-29.999999999999996	29.999999999999996								
	143	144	0.0002	0.016	0.0	1000.0	0.0	0.0	1.0	0.0	1	-29.999999999999996	29.999999999999996								
	144	119	0.00012	0.0049	0.0	2042.6	0.0	0.0	1.0	0.0	1	-29.999999999999996	29.999999999999996								
...
];

%%-----  OPF Data  -----%%
%% cost data
%    1    startup    shutdown    n    x1    y1    ...    xn    yn
%    2    startup    shutdown    n    c(n-1)    ...    c0
mpc.gencost = [
	2	0.0	0.0	3	0.11	5.0	0.0
	2	0.0	0.0	3	0.11	5.0	0.0
	2	0.0	0.0	3	0.11	5.0	0.0
	2	0.0	0.0	3	0.11	5.0	0.0
	2	0.0	0.0	3	0.11	5.0	0.0
	2	0.0	0.0	3	0.11	5.0	0.0
	2	0.0	0.0	3	0.11	5.0	0.0
	2	0.0	0.0	3	0.11	5.0	0.0
	2	0.0	0.0	3	0.11	5.0	0.0
	2	0.0	0.0	3	0.11	5.0	0.0
	2	0.0	0.0	3	0.11	5.0	0.0
	2	0.0	0.0	3	0.11	5.0	0.0
	2	0.0	0.0	3	0.11	5.0	0.0
	2	0.0	0.0	3	0.11	5.0	0.0
	2	0.0	0.0	3	0.11	5.0	0.0
	2	0.0	0.0	3	0.11	5.0	0.0
	2	0.0	0.0	3	0.11	5.0	0.0
	2	0.0	0.0	3	0.11	5.0	0.0
	2	0.0	0.0	3	0.11	5.0	0.0
	2	0.0	0.0	3	0.11	5.0	0.0
	2	0.0	0.0	3	0.11	5.0	0.0
	2	0.0	0.0	3	0.11	5.0	0.0
	2	0.0	0.0	3	0.11	5.0	0.0
	2	0.0	0.0	3	0.11	5.0	0.0
	2	0.0	0.0	3	0.11	5.0	0.0
	2	0.0	0.0	3	0.11	5.0	0.0
	2	0.0	0.0	3	0.11	5.0	0.0
];

%column_names% lat lon 
mpc.bus_data = {
	36.0282	-87.9858
	36.4362	-86.8408
	36.2233	-86.1935
	36.0522	-86.6325
	35.9625	-86.7679
	36.2313	-86.9813
	35.7301	-85.7476
	35.8408	-86.2826
	35.5018	-86.6416
	36.5242	-86.1379
	36.5248	-87.5031
	35.9637	-87.4458
	36.0433	-87.0244
	36.4751	-87.2991
	36.4682	-86.5208
	35.8704	-86.9483
	36.3138	-86.6083
	36.1306	-86.6131
	35.984	-86.5424
	35.6188	-88.2598
	36.2387	-86.7329
	36.1368	-86.6724
	35.8608	-86.4687
	36.0368	-88.0416
	36.4681	-85.6435
	35.6588	-86.9813
	35.3304	-86.134
	36.1455	-86.7949
	36.1655	-86.7068
	36.0672	-86.7237
	35.1732	-85.5225
	35.0633	-85.1079
	35.4672	-84.4816
	35.1167	-84.8303
	35.2728	-85.0316
	35.0648	-84.3977
	35.5697	-84.9132
	35.5199	-85.3294
	35.1325	-86.5826
	35.1309	-85.2298
	35.017	-85.2632
	36.3073	-82.3466
	36.3264	-82.4564
	36.1685	-82.8074
	36.4386	-82.12
	36.4861	-82.8358
	36.5124	-82.5391
	36.462	-81.8175
	35.8497	-83.8536
	36.129	-84.1057
	36.2542	-83.2464
	36.0264	-83.7164
	35.8786	-84.3042
	36.045	-83.3257
	36.421	-84.3043
	36.1141	-83.8869
	35.9917	-85.0381
	36.4785	-83.6199
	35.9378	-84.5826
	35.8107	-83.5335
	35.6606	-84.0345
	35.8648	-84.1335
	35.9871	-83.9586
	35.9398	-84.0597
	35.9444	-88.9889
	35.2984	-89.6813
	35.5611	-89.7213
	36.3858	-89.2419
	35.2639	-89.0126
	35.5921	-89.2811
	35.1729	-89.7672
	35.1187	-89.5722
	36.0242	-89.367
	35.1892	-89.8547
	35.2797	-89.9931
	35.1474	-90.0154
	35.0637	-90.1364
	35.1958	-89.9338
	35.108	-89.9449
	35.0505	-89.857
	35.0329	-89.9715
	35.0558	-89.7849
	35.975	-88.5693
	36.3194	-88.2766
	36.3569	-88.772
	35.6627	-88.8021
	35.2526	-88.5628
	35.2315	-88.0034
	35.2974	-87.3072
	36.1385	-85.5007
	36.4266	-85.1306
	35.9871	-83.9586
	36.045	-83.3257
	35.1309	-85.2298
	35.6627	-88.8021
	35.8608	-86.4687
	36.3264	-82.4564
	36.5248	-87.5031
	35.108	-89.9449
	35.9398	-84.0597
	36.1368	-86.6724
	35.8408	-86.2826
	36.4386	-82.12
	35.1729	-89.7672
	36.1385	-85.5007
	35.3304	-86.134
	35.4672	-84.4816
	36.4751	-87.2991
	35.8497	-83.8536
	36.3156	-86.4004
	36.3156	-86.4004
	36.3156	-86.4004
	36.3768	-82.9634
	36.3768	-82.9634
	36.3768	-82.9634
	36.0282	-87.9858
	36.0282	-87.9858
	36.0282	-87.9858
	36.0282	-87.9858
	35.9086	-84.4618
	35.9086	-84.4618
	35.9086	-84.4618
	35.9086	-84.4618
	35.6519	-89.4008
	35.6519	-89.4008
	35.6519	-89.4008
	35.6519	-89.4008
	35.6519	-89.4008
	35.0682	-88.2497
	35.2267	-85.0915
	35.2267	-85.0915
	35.2267	-85.0915
	35.2267	-85.0915
	35.2267	-85.0915
	35.1967	-86.2783
	35.6519	-89.4008
	35.6519	-89.4008
	35.9086	-84.4618
	35.9086	-84.4618
	35.1967	-86.2783
	36.3156	-86.4004
	36.3156	-86.4004
	36.0282	-87.9858
	36.0282	-87.9858
	35.2267	-85.0915
	35.2267	-85.0915
	35.0682	-88.2497
	35.0682	-88.2497
	36.3768	-82.9634
	36.3768	-82.9634
};

%column_names% gmd_br_series gmd_k lo_bus gmd_br_hi baseMVA hi_bus config gmd_br_common gmd_br_lo type 
mpc.branch_data = {
	-1	0.0	21	-1	100.0	2	'none'	-1	-1	'line'
	-1	0.0	14	-1	100.0	2	'none'	-1	-1	'line'
	-1	0.0	30	-1	100.0	4	'none'	-1	-1	'line'
	-1	0.0	19	-1	100.0	4	'none'	-1	-1	'line'
	-1	0.0	18	-1	100.0	4	'none'	-1	-1	'line'
	-1	0.0	16	-1	100.0	5	'none'	-1	-1	'line'
	-1	0.0	30	-1	100.0	5	'none'	-1	-1	'line'
	-1	0.0	14	-1	100.0	6	'none'	-1	-1	'line'
	-1	0.0	13	-1	100.0	6	'none'	-1	-1	'line'
	-1	0.0	28	-1	100.0	6	'none'	-1	-1	'line'
	-1	0.0	38	-1	100.0	7	'none'	-1	-1	'line'
	-1	0.0	8	-1	100.0	7	'none'	-1	-1	'line'
	-1	0.0	23	-1	100.0	8	'none'	-1	-1	'line'
	-1	0.0	39	-1	100.0	9	'none'	-1	-1	'line'
	-1	0.0	23	-1	100.0	9	'none'	-1	-1	'line'
	-1	0.0	26	-1	100.0	9	'none'	-1	-1	'line'
	-1	0.0	141	-1	100.0	10	'none'	-1	-1	'line'
	-1	0.0	25	-1	100.0	10	'none'	-1	-1	'line'
	-1	0.0	14	-1	100.0	11	'none'	-1	-1	'line'
	-1	0.0	13	-1	100.0	12	'none'	-1	-1	'line'
	-1	0.0	143	-1	100.0	12	'none'	-1	-1	'line'
	-1	0.0	16	-1	100.0	13	'none'	-1	-1	'line'
	-1	0.0	17	-1	100.0	15	'none'	-1	-1	'line'
	-1	0.0	26	-1	100.0	16	'none'	-1	-1	'line'
	-1	0.0	21	-1	100.0	17	'none'	-1	-1	'line'
	-1	0.0	22	-1	100.0	18	'none'	-1	-1	'line'
	-1	0.0	23	-1	100.0	19	'none'	-1	-1	'line'
	-1	0.0	3	-1	100.0	19	'none'	-1	-1	'line'
	-1	0.0	143	-1	100.0	20	'none'	-1	-1	'line'
	-1	0.0	29	-1	100.0	21	'none'	-1	-1	'line'
	-1	0.0	30	-1	100.0	22	'none'	-1	-1	'line'
	-1	0.0	29	-1	100.0	22	'none'	-1	-1	'line'
	-1	0.0	30	-1	100.0	22	'none'	-1	-1	'line'
	-1	0.0	143	-1	100.0	24	'none'	-1	-1	'line'
	-1	0.0	29	-1	100.0	28	'none'	-1	-1	'line'
	-1	0.0	41	-1	100.0	31	'none'	-1	-1	'line'
	-1	0.0	38	-1	100.0	31	'none'	-1	-1	'line'
	-1	0.0	40	-1	100.0	31	'none'	-1	-1	'line'
	-1	0.0	36	-1	100.0	32	'none'	-1	-1	'line'
	-1	0.0	40	-1	100.0	32	'none'	-1	-1	'line'
	-1	0.0	37	-1	100.0	33	'none'	-1	-1	'line'
	-1	0.0	36	-1	100.0	34	'none'	-1	-1	'line'
	-1	0.0	37	-1	100.0	35	'none'	-1	-1	'line'
	-1	0.0	145	-1	100.0	35	'none'	-1	-1	'line'
	-1	0.0	145	-1	100.0	35	'none'	-1	-1	'line'
	-1	0.0	34	-1	100.0	35	'none'	-1	-1	'line'
	-1	0.0	38	-1	100.0	37	'none'	-1	-1	'line'
	-1	0.0	41	-1	100.0	40	'none'	-1	-1	'line'
	-1	0.0	43	-1	100.0	42	'none'	-1	-1	'line'
	-1	0.0	42	-1	100.0	44	'none'	-1	-1	'line'
	-1	0.0	149	-1	100.0	44	'none'	-1	-1	'line'
	-1	0.0	48	-1	100.0	45	'none'	-1	-1	'line'
	-1	0.0	42	-1	100.0	45	'none'	-1	-1	'line'
	-1	0.0	149	-1	100.0	46	'none'	-1	-1	'line'
	-1	0.0	47	-1	100.0	46	'none'	-1	-1	'line'
	-1	0.0	48	-1	100.0	47	'none'	-1	-1	'line'
	-1	0.0	43	-1	100.0	47	'none'	-1	-1	'line'
	-1	0.0	52	-1	100.0	49	'none'	-1	-1	'line'
	-1	0.0	63	-1	100.0	49	'none'	-1	-1	'line'
	-1	0.0	56	-1	100.0	50	'none'	-1	-1	'line'
	-1	0.0	55	-1	100.0	50	'none'	-1	-1	'line'
	-1	0.0	64	-1	100.0	50	'none'	-1	-1	'line'
	-1	0.0	149	-1	100.0	51	'none'	-1	-1	'line'
	-1	0.0	58	-1	100.0	51	'none'	-1	-1	'line'
	-1	0.0	54	-1	100.0	51	'none'	-1	-1	'line'
	-1	0.0	60	-1	100.0	52	'none'	-1	-1	'line'
	-1	0.0	56	-1	100.0	52	'none'	-1	-1	'line'
	-1	0.0	138	-1	100.0	53	'none'	-1	-1	'line'
	-1	0.0	138	-1	100.0	53	'none'	-1	-1	'line'
	-1	0.0	62	-1	100.0	53	'none'	-1	-1	'line'
	-1	0.0	60	-1	100.0	54	'none'	-1	-1	'line'
	-1	0.0	138	-1	100.0	55	'none'	-1	-1	'line'
	-1	0.0	63	-1	100.0	56	'none'	-1	-1	'line'
	-1	0.0	58	-1	100.0	56	'none'	-1	-1	'line'
	-1	0.0	90	-1	100.0	57	'none'	-1	-1	'line'
	-1	0.0	59	-1	100.0	57	'none'	-1	-1	'line'
	-1	0.0	138	-1	100.0	59	'none'	-1	-1	'line'
	-1	0.0	33	-1	100.0	61	'none'	-1	-1	'line'
	-1	0.0	62	-1	100.0	61	'none'	-1	-1	'line'
	-1	0.0	64	-1	100.0	62	'none'	-1	-1	'line'
	-1	0.0	64	-1	100.0	63	'none'	-1	-1	'line'
	-1	0.0	86	-1	100.0	65	'none'	-1	-1	'line'
	-1	0.0	83	-1	100.0	65	'none'	-1	-1	'line'
	-1	0.0	73	-1	100.0	65	'none'	-1	-1	'line'
	-1	0.0	71	-1	100.0	66	'none'	-1	-1	'line'
	-1	0.0	67	-1	100.0	66	'none'	-1	-1	'line'
	-1	0.0	136	-1	100.0	67	'none'	-1	-1	'line'
	-1	0.0	136	-1	100.0	67	'none'	-1	-1	'line'
	-1	0.0	75	-1	100.0	67	'none'	-1	-1	'line'
	-1	0.0	85	-1	100.0	68	'none'	-1	-1	'line'
	-1	0.0	73	-1	100.0	68	'none'	-1	-1	'line'
	-1	0.0	87	-1	100.0	69	'none'	-1	-1	'line'
	-1	0.0	70	-1	100.0	69	'none'	-1	-1	'line'
	-1	0.0	136	-1	100.0	70	'none'	-1	-1	'line'
	-1	0.0	72	-1	100.0	70	'none'	-1	-1	'line'
	-1	0.0	74	-1	100.0	71	'none'	-1	-1	'line'
	-1	0.0	74	-1	100.0	71	'none'	-1	-1	'line'
	-1	0.0	72	-1	100.0	71	'none'	-1	-1	'line'
	-1	0.0	82	-1	100.0	71	'none'	-1	-1	'line'
	-1	0.0	136	-1	100.0	73	'none'	-1	-1	'line'
	-1	0.0	78	-1	100.0	74	'none'	-1	-1	'line'
	-1	0.0	78	-1	100.0	75	'none'	-1	-1	'line'
	-1	0.0	79	-1	100.0	76	'none'	-1	-1	'line'
	-1	0.0	78	-1	100.0	76	'none'	-1	-1	'line'
	-1	0.0	77	-1	100.0	76	'none'	-1	-1	'line'
	-1	0.0	81	-1	100.0	77	'none'	-1	-1	'line'
	-1	0.0	80	-1	100.0	79	'none'	-1	-1	'line'
	-1	0.0	81	-1	100.0	79	'none'	-1	-1	'line'
	-1	0.0	82	-1	100.0	80	'none'	-1	-1	'line'
	-1	0.0	20	-1	100.0	83	'none'	-1	-1	'line'
	-1	0.0	24	-1	100.0	84	'none'	-1	-1	'line'
	-1	0.0	84	-1	100.0	85	'none'	-1	-1	'line'
	-1	0.0	147	-1	100.0	87	'none'	-1	-1	'line'
	-1	0.0	147	-1	100.0	88	'none'	-1	-1	'line'
	-1	0.0	89	-1	100.0	88	'none'	-1	-1	'line'
	-1	0.0	26	-1	100.0	89	'none'	-1	-1	'line'
	-1	0.0	91	-1	100.0	90	'none'	-1	-1	'line'
	-1	0.0	25	-1	100.0	90	'none'	-1	-1	'line'
	-1	0.0	25	-1	100.0	91	'none'	-1	-1	'line'
	-1	0.0	100	-1	100.0	92	'none'	-1	-1	'line'
	-1	0.0	97	-1	100.0	93	'none'	-1	-1	'line'
	-1	0.0	102	-1	100.0	96	'none'	-1	-1	'line'
	-1	0.0	101	-1	100.0	96	'none'	-1	-1	'line'
	-1	0.0	108	-1	100.0	98	'none'	-1	-1	'line'
	-1	0.0	137	-1	100.0	99	'none'	-1	-1	'line'
	-1	0.0	97	-1	100.0	103	'none'	-1	-1	'line'
	-1	0.0	137	-1	100.0	104	'none'	-1	-1	'line'
	-1	0.0	99	-1	100.0	104	'none'	-1	-1	'line'
	-1	0.0	102	-1	100.0	105	'none'	-1	-1	'line'
	-1	0.0	102	-1	100.0	106	'none'	-1	-1	'line'
	-1	0.0	94	-1	100.0	106	'none'	-1	-1	'line'
	-1	0.0	139	-1	100.0	107	'none'	-1	-1	'line'
	-1	0.0	101	-1	100.0	108	'none'	-1	-1	'line'
	-1	0.0	107	-1	100.0	109	'none'	-1	-1	'line'
	-1	0.0	93	-1	100.0	109	'none'	-1	-1	'line'
	-1	0.0	92	-1	100.0	109	'none'	-1	-1	'line'
	-1	0.0	95	-1	100.0	137	'none'	-1	-1	'line'
	-1	0.0	100	-1	100.0	139	'none'	-1	-1	'line'
	-1	0.0	39	-1	100.0	140	'none'	-1	-1	'line'
	-1	0.0	27	-1	100.0	140	'none'	-1	-1	'line'
	-1	0.0	17	-1	100.0	141	'none'	-1	-1	'line'
	-1	0.0	17	-1	100.0	141	'none'	-1	-1	'line'
	-1	0.0	15	-1	100.0	141	'none'	-1	-1	'line'
	-1	0.0	3	-1	100.0	141	'none'	-1	-1	'line'
	-1	0.0	101	-1	100.0	142	'none'	-1	-1	'line'
	-1	0.0	108	-1	100.0	144	'none'	-1	-1	'line'
	-1	0.0	101	-1	100.0	144	'none'	-1	-1	'line'
	-1	0.0	98	-1	100.0	144	'none'	-1	-1	'line'
	-1	0.0	95	-1	100.0	144	'none'	-1	-1	'line'
	-1	0.0	40	-1	100.0	145	'none'	-1	-1	'line'
	-1	0.0	32	-1	100.0	145	'none'	-1	-1	'line'
	-1	0.0	107	-1	100.0	146	'none'	-1	-1	'line'
	-1	0.0	105	-1	100.0	146	'none'	-1	-1	'line'
	-1	0.0	94	-1	100.0	146	'none'	-1	-1	'line'
	-1	0.0	95	-1	100.0	148	'none'	-1	-1	'line'
	-1	0.0	97	-1	100.0	150	'none'	-1	-1	'line'
	-1	0.0	93	-1	100.0	150	'none'	-1	-1	'line'
	-1	0.0	21	-1	100.0	5	'none'	-1	-1	'series_cap'
	158	1.8	8	-1	100.0	102	'gwye-gwye-auto'	159	-1	'xf'
	160	1.8	11	-1	100.0	98	'gwye-gwye-auto'	161	-1	'xf'
	162	1.8	14	-1	100.0	108	'gwye-gwye-auto'	163	-1	'xf'
	164	1.8	22	-1	100.0	101	'gwye-gwye-auto'	165	-1	'xf'
	166	1.8	22	-1	100.0	101	'gwye-gwye-auto'	167	-1	'xf'
	168	1.8	23	-1	100.0	96	'gwye-gwye-auto'	169	-1	'xf'
	170	1.8	27	-1	100.0	106	'gwye-gwye-auto'	171	-1	'xf'
	172	1.8	33	-1	100.0	107	'gwye-gwye-auto'	173	-1	'xf'
	174	1.8	40	-1	100.0	94	'gwye-gwye-auto'	175	-1	'xf'
	176	1.8	43	-1	100.0	97	'gwye-gwye-auto'	177	-1	'xf'
	178	1.8	45	-1	100.0	103	'gwye-gwye-auto'	179	-1	'xf'
	180	1.8	49	-1	100.0	109	'gwye-gwye-auto'	181	-1	'xf'
	182	1.8	54	-1	100.0	93	'gwye-gwye-auto'	183	-1	'xf'
	184	1.8	63	-1	100.0	92	'gwye-gwye-auto'	185	-1	'xf'
	186	1.8	64	-1	100.0	100	'gwye-gwye-auto'	187	-1	'xf'
	188	1.8	71	-1	100.0	104	'gwye-gwye-auto'	189	-1	'xf'
	190	1.8	79	-1	100.0	99	'gwye-gwye-auto'	191	-1	'xf'
	192	1.8	79	-1	100.0	99	'gwye-gwye-auto'	193	-1	'xf'
	194	1.8	86	-1	100.0	95	'gwye-gwye-auto'	195	-1	'xf'
	196	1.8	90	-1	100.0	105	'gwye-gwye-auto'	197	-1	'xf'
	198	1.8	136	-1	100.0	137	'gwye-gwye-auto'	199	-1	'xf'
	200	1.8	136	-1	100.0	137	'gwye-gwye-auto'	201	-1	'xf'
	-1	1.8	127	202	100.0	137	'gwye-delta'	-1	-1	'xf'
	-1	1.8	128	203	100.0	137	'gwye-delta'	-1	-1	'xf'
	-1	1.8	126	204	100.0	137	'gwye-delta'	-1	-1	'xf'
	-1	1.8	125	205	100.0	137	'gwye-delta'	-1	-1	'xf'
	-1	1.8	124	206	100.0	137	'gwye-delta'	-1	-1	'xf'
	207	1.8	138	-1	100.0	139	'gwye-gwye-auto'	208	-1	'xf'
	209	1.8	138	-1	100.0	139	'gwye-gwye-auto'	210	-1	'xf'
	-1	1.8	122	211	100.0	139	'gwye-delta'	-1	-1	'xf'
	-1	1.8	121	212	100.0	139	'gwye-delta'	-1	-1	'xf'
	-1	1.8	120	213	100.0	139	'gwye-delta'	-1	-1	'xf'
	-1	1.8	123	214	100.0	139	'gwye-delta'	-1	-1	'xf'
	-1	1.5	135	215	100.0	140	'gwye-delta'	-1	-1	'xf'
	216	1.8	141	-1	100.0	142	'gwye-gwye-auto'	217	-1	'xf'
	218	1.8	141	-1	100.0	142	'gwye-gwye-auto'	219	-1	'xf'
	-1	1.8	112	220	100.0	142	'gwye-delta'	-1	-1	'xf'
	-1	1.8	111	221	100.0	142	'gwye-delta'	-1	-1	'xf'
	-1	1.8	110	222	100.0	142	'gwye-delta'	-1	-1	'xf'
	223	1.8	143	-1	100.0	144	'gwye-gwye-auto'	224	-1	'xf'
	225	1.8	143	-1	100.0	144	'gwye-gwye-auto'	226	-1	'xf'
	-1	1.8	119	227	100.0	144	'gwye-delta'	-1	-1	'xf'
...
};

%column_names% br_r f_bus name br_status parent_index br_v len_km t_bus 
mpc.gmd_branch = {
	0.56074	100	'dc_br001'	1	1	9.687064370981355	23.961278974303113	119
	0.96278	100	'dc_br002'	1	2	-41.08308157586014	41.30923931343121	112
	0.19573000000000004	102	'dc_br003'	1	3	-8.216741328213406	8.38362203226035	128
	0.25921	102	'dc_br004'	1	4	8.121906440964997	11.101004142134121	117
	0.20807333333333333	102	'dc_br005'	1	5	1.7471581385142314	8.873105835977155	116
	0.4478866666666667	103	'dc_br006'	1	6	-16.28269876464363	19.223936296502483	114
	0.2874233333333333	103	'dc_br007'	1	7	3.9844950436048467	12.281829547385584	128
	0.9186966666666666	104	'dc_br008'	1	8	-28.525756833200518	39.31435155513658	112
	0.49726000000000004	104	'dc_br009'	1	9	-3.8793148650232654	21.218585201080955	111
	0.44965000000000005	104	'dc_br010'	1	10	16.766476710849048	19.281021640249094	126
	1.0386033333333333	105	'dc_br011'	1	11	37.884226554584984	44.487584784904115	136
	1.1638	105	'dc_br012'	1	12	-48.36798120094631	49.903200378443124	106
	0.3949866666666666	106	'dc_br013'	1	13	-16.81104224468134	16.956878828000857	121
	0.96807	107	'dc_br014'	1	14	5.365147555426271	41.32261408565746	137
	1.0015733333333334	107	'dc_br015'	1	15	15.651812193095168	42.79728035997275	121
	0.82524	107	'dc_br016'	1	16	-30.790125638911984	35.37612860046507	124
	0.7705766666666666	108	'dc_br017'	1	17	-23.541907678274864	33.01583965434563	239
	1.04213	108	'dc_br018'	1	18	44.296115783822835	44.73143337162554	123
	0.44436000000000003	109	'dc_br019'	1	19	18.276630493710726	19.090635212671202	112
	0.9098799999999999	110	'dc_br020'	1	20	37.993368907670344	39.006508113653055	111
	1.14793	110	'dc_br021'	1	21	-48.69097022176591	49.21414400144359	241
	0.4761	111	'dc_br022'	1	22	6.865205152679065	20.37618717434976	114
	0.44083333333333335	113	'dc_br023'	1	23	-7.850209198443768	18.846144525648487	115
	0.5536866666666667	114	'dc_br024'	1	24	-2.984224508687421	23.66709754011358	124
	0.32621666666666665	115	'dc_br025'	1	25	-11.19510422507646	13.956261095344527	119
	0.12519666666666668	116	'dc_br026'	1	26	-5.337677013571093	5.381830046842052	120
	0.35619333333333336	117	'dc_br027'	1	27	6.651579965508488	15.202461267653442	121
	0.9610166666666666	117	'dc_br028'	1	28	31.416951989156328	41.13509584018222	101
	1.2096466666666668	118	'dc_br029'	1	29	24.75982759138402	51.735285875462736	241
	0.1974933333333333	119	'dc_br030'	1	30	2.3472575929711734	8.454900038053937	127
	0.20983666666666667	120	'dc_br031'	1	31	-4.619442068280311	8.999062088942622	128
	0.10403666666666667	120	'dc_br032'	1	32	-3.095707085332857	4.441314990523534	127
	0.20983666666666667	120	'dc_br033'	1	33	-4.619442068280311	8.999062088942622	128
	0.11990666666666668	122	'dc_br034'	1	34	5.029077905416772	5.118812186275495	241
	0.19220333333333336	126	'dc_br035'	1	35	7.927811978910655	8.232575773387158	127
	0.6841733333333333	129	'dc_br036'	1	36	23.643644656944797	29.31429047697603	139
	0.98923	129	'dc_br037'	1	37	17.553133987383184	42.28139493972162	136
	0.6312733333333332	129	'dc_br038'	1	38	26.67057282851207	27.080309511062218	138
	1.5094133333333335	130	'dc_br039'	1	39	64.78241233423924	64.78262607715382	134
	0.3138733333333333	130	'dc_br040'	1	40	-11.114885867426338	13.408472951024315	138
	0.9504366666666666	131	'dc_br041'	1	41	-39.14991942040476	40.76824117431351	135
	0.9292766666666666	132	'dc_br042'	1	42	39.44768168728425	39.86569408392447	134
	0.8111333333333333	133	'dc_br043'	1	43	10.752853849450883	34.65143359961478	135
	0.17457	133	'dc_br044'	1	44	-5.4515043990841	7.475170350701417	243
	0.17457	133	'dc_br045'	1	45	-5.4515043990841	7.475170350701417	243
	0.5889533333333333	133	'dc_br046'	1	46	18.33269561152578	25.219416044394393	132
	0.8887200000000001	135	'dc_br047'	1	47	-37.740662104591436	38.14298700579007	136
	0.3050566666666667	138	'dc_br048'	1	48	-3.0462845868769484	12.998390417838815	139
	0.23452333333333333	140	'dc_br049'	1	49	-9.860237924807702	10.08545243189294	141
	1.03155	142	'dc_br050'	1	50	41.42235957251018	44.1930880975753	140
	0.6330366666666666	142	'dc_br051'	1	51	-14.016985874959751	27.03208443368916	247
	0.6347999999999999	143	'dc_br052'	1	52	27.11866829841513	27.2427019478477	146
	0.5836633333333333	143	'dc_br053'	1	53	-20.334497623025023	25.01550212031069	140
	0.38969666666666675	144	'dc_br054'	1	54	-11.441914384096457	16.67408852775685	247
	0.62422	144	'dc_br055'	1	55	26.58198567127775	26.741719367900437	145
	1.5129400000000002	145	'dc_br056'	1	56	64.65969828902571	64.90112813824943	146
	0.51313	145	'dc_br057'	1	57	7.41686950718992	21.932162147989963	141
	0.5413433333333333	147	'dc_br058'	1	58	12.380148475509872	23.18792302545909	150
	0.41967333333333334	147	'dc_br059'	1	59	-9.476947943636437	17.95114400166551	161
	0.46023	148	'dc_br060'	1	60	19.697533401423275	19.76679906276997	154
	0.8657966666666668	148	'dc_br061'	1	61	-17.844166479247267	36.990417217716576	153
	0.5007866666666667	148	'dc_br062'	1	62	4.145735264489546	21.399168055950753	162
	0.67183	149	'dc_br063'	1	63	25.414348341470163	28.826534328101772	247
	0.9751233333333333	149	'dc_br064'	1	64	-33.51975454604181	41.750191169819615	156
	0.5677933333333334	149	'dc_br065'	1	65	-7.136465186242891	24.285618353036504	152
	0.6806466666666666	150	'dc_br066'	1	66	16.50790958369216	29.074640887069922	158
	0.4249633333333333	150	'dc_br067'	1	67	-15.35929130333395	18.182576072551214	154
	0.3403233333333333	151	'dc_br068'	1	68	-14.228886481654333	14.613066592039903	236
	0.3403233333333333	151	'dc_br069'	1	69	-14.228886481654333	14.613066592039903	236
	0.3614833333333334	151	'dc_br070'	1	70	15.415860781700399	15.49171976428581	160
	0.7494166666666667	152	'dc_br071'	1	71	-18.753100130796977	32.05548451289227	158
	1.3718733333333333	153	'dc_br072'	1	72	-14.171202347319118	58.596865046392246	236
	0.3632466666666667	154	'dc_br073'	1	73	-6.460615991528922	15.502417847433946	161
	1.10032	154	'dc_br074'	1	74	23.98337320791627	47.01337526465175	156
	1.0438933333333333	155	'dc_br075'	1	75	-41.675491426901814	44.74574074087358	188
	0.96807	155	'dc_br076'	1	76	41.08790444445139	41.520895174397694	157
	0.2645	157	'dc_br077'	1	77	10.902344200644254	11.373593847953712	236
	1.0703433333333334	159	'dc_br078'	1	78	-40.5330322660465	45.862581119344526	131
	0.5695566666666666	159	'dc_br079'	1	79	-8.952886414411283	24.361842378105724	160
	0.24863000000000002	160	'dc_br080'	1	80	6.662290125571749	10.660181323639646	162
	0.24510333333333334	161	'dc_br081'	1	81	-9.119769980333512	10.522149454542088	162
	0.83053	163	'dc_br082'	1	82	16.884280543523833	35.52521455550745	184
	0.8851933333333334	163	'dc_br083'	1	83	37.85199205903811	38.003969727923035	181
	0.8217133333333333	163	'dc_br084'	1	84	-34.097708862873276	35.228643886910625	171
	0.3738266666666667	164	'dc_br085'	1	85	-7.819120067868151	15.968970379953214	169
	0.6877	164	'dc_br086'	1	86	-3.6323392703108066	29.371869302247685	165
	0.7176766666666666	165	'dc_br087'	1	87	29.040389423704163	30.73824626358379	234
	0.7176766666666666	165	'dc_br088'	1	88	29.040389423704163	30.73824626358379	234
	0.93104	165	'dc_br089'	1	89	-24.684597766188656	39.800589890663936	173
	0.9857033333333334	166	'dc_br090'	1	90	42.168473537821924	42.29024285483357	183
	0.9751233333333333	166	'dc_br091'	1	91	-11.250233468004117	41.671849927959386	171
	0.9539633333333333	167	'dc_br092'	1	92	40.93206537129824	40.951260297009746	185
	1.0244966666666666	167	'dc_br093'	1	93	-24.38260479575316	43.82305354620882	168
	0.29624	168	'dc_br094'	1	94	-10.843881642908462	12.71270248676477	234
	1.3754	168	'dc_br095'	1	95	-26.45862225726985	58.81073050149605	170
	0.19044000000000003	169	'dc_br096'	1	96	-7.970095006321682	8.172681673204359	172
	0.19044000000000003	169	'dc_br097'	1	97	-7.970095006321682	8.172681673204359	172
	0.4373066666666667	169	'dc_br098'	1	98	17.76959126166893	18.759440873256402	170
	0.30682000000000004	169	'dc_br099'	1	99	-1.6135523772342337	13.091310822625562	180
	0.9698333333333333	171	'dc_br100'	1	100	-3.05375698778578	41.42198924519529	234
	0.16927999999999999	172	'dc_br101'	1	101	-7.203955313745952	7.241073350943745	176
	0.2521566666666667	173	'dc_br102'	1	102	5.397693473275276	10.760138922751032	176
	0.18162333333333336	174	'dc_br103'	1	103	6.425812724464966	7.771636853815518	177
	0.21336333333333332	174	'dc_br104'	1	104	7.433543075375487	9.170139231149275	176
	0.3367966666666667	174	'dc_br105'	1	105	-11.031685127249569	14.419680701450076	175
	0.35972000000000004	175	'dc_br106'	1	106	15.04459475324863	15.427763551764864	179
	0.23981333333333335	177	'dc_br107'	1	107	8.016500030427736	10.24493521469505	178
	0.20278333333333332	177	'dc_br108'	1	108	-2.4261865183773486	8.677862510754354	179
	0.15341000000000002	178	'dc_br109'	1	109	6.5776298347144015	6.60385889582272	180
	1.13206	181	'dc_br110'	1	110	27.97708966649824	48.42264701070892	118
	0.88343	182	'dc_br111'	1	111	21.140761163321592	37.818906109834344	122
	1.04213	183	'dc_br112'	1	112	44.47570666946453	44.66994912618647	182
	0.81995	185	'dc_br113'	1	113	28.5264884205818	35.10408055072634	245
	0.6735933333333334	186	'dc_br114'	1	114	-22.443248711244973	28.84323230944022	245
	1.4864899999999999	186	'dc_br115'	1	115	63.34978552291833	63.77030156076109	187
	1.1655633333333333	187	'dc_br116'	1	116	29.576785427516434	49.825597245060315	124
	1.0773966666666668	188	'dc_br117'	1	117	33.25020178268464	46.125891145880615	189
	0.9063533333333332	188	'dc_br118'	1	118	-12.825916442831724	38.75797627402356	123
	1.0773966666666668	189	'dc_br119'	1	119	-45.982451604715244	46.212482889109744	123
	0.049999999999999996	190	'dc_br120'	1	120	-9.119769980333512	10.522149454542088	198
	0.39999999999999997	191	'dc_br121'	1	121	78.19527072655198	84.19921255307125	195
	0.08333333333333333	194	'dc_br122'	1	122	16.81104224468134	16.956878828000857	200
	0.16666666666666666	194	'dc_br123'	1	123	-18.36665519662808	35.710236402179106	199
	0.09166666666666667	196	'dc_br124'	1	124	18.276630493710726	19.090635212671202	206
	0.3666666666666667	197	'dc_br125'	1	125	49.43929285893168	78.0111979183373	235
	0.15	201	'dc_br126'	1	126	-30.183975227833137	32.650994785099904	195
	0.3	202	'dc_br127'	1	127	33.27936224179501	62.70458209907397	235
	0.08333333333333333	202	'dc_br128'	1	128	-16.194169204043284	17.72272519962712	197
	0.3666666666666667	203	'dc_br129'	1	129	-70.50832776830453	77.86260253773312	200
	0.27499999999999997	204	'dc_br130'	1	130	-13.46809304742074	58.20953959973172	200
	0.39999999999999997	204	'dc_br131'	1	131	82.31061921088953	85.23460188953426	192
	0.2333333333333333	205	'dc_br132'	1	132	1.792251929563663	49.00794848196124	237
	0.3166666666666667	206	'dc_br133'	1	133	56.28662391170557	67.65657036369723	199
	0.3333333333333333	207	'dc_br134'	1	134	-56.866047847414706	70.95689096825977	205
	0.24999999999999997	207	'dc_br135'	1	135	47.62911594660496	52.32718255586354	191
	0.08333333333333333	207	'dc_br136'	1	136	-9.476947943636437	17.95114400166551	190
	0.25833333333333336	235	'dc_br137'	1	137	54.21367984715658	54.22692138196718	193
	0.17500000000000002	237	'dc_br138'	1	138	36.28954812702705	36.45430152846323	198
	0.66654	238	'dc_br139'	1	139	-27.72329670537208	28.623646385301058	137
	0.46375666666666665	238	'dc_br140'	1	140	13.130530207377497	19.810204924447618	125
	0.43554333333333334	239	'dc_br141'	1	141	-18.670307441540007	18.671375830779613	115
	0.43554333333333334	239	'dc_br142'	1	142	-18.670307441540007	18.671375830779613	115
	0.46904666666666667	239	'dc_br143'	1	143	-10.801763345623005	20.085442278348815	113
	0.4954966666666667	239	'dc_br144'	1	144	18.59123535823564	21.225785218584043	101
	0.15	240	'dc_br145'	1	145	-24.454341191487647	31.49056935124555	199
	0.375	242	'dc_br146'	1	146	61.71821260893955	79.17269321139811	206
	0.5583333333333333	242	'dc_br147'	1	147	118.29774103175909	118.90991585859392	199
	0.3333333333333333	242	'dc_br148'	1	148	43.369659547399664	70.12501651410983	196
	0.39999999999999997	242	'dc_br149'	1	149	-73.74409199842374	84.15987128446774	193
	0.38440666666666673	243	'dc_br150'	1	150	-12.597651598924237	16.48229358170202	138
	0.42672666666666664	243	'dc_br151'	1	151	-1.4944828123230522	18.189769379732514	130
	0.2916666666666667	244	'dc_br152'	1	152	55.44072317878213	61.527669409802165	205
	0.5083333333333333	244	'dc_br153'	1	153	-37.04232307867045	107.73616005282042	203
	0.075	244	'dc_br154'	1	154	-12.597651598924237	16.48229358170202	192
	0.39166666666666666	246	'dc_br155'	1	155	-50.202445640501146	82.89050648637222	193
	0.21666666666666665	248	'dc_br156'	1	156	45.50929724272254	45.851658187343766	195
	0.2333333333333333	248	'dc_br157'	1	157	-32.57916597356089	49.16252115901401	191
	0.08333333333333333	106	'dc_xf01_series'	1	159	0.0	0.0	200
	0.06046666666666667	106	'dc_xf01_common'	1	159	0.0	0.0	7
	0.08333333333333333	109	'dc_xf02_series'	1	160	0.0	0.0	196
	0.06046666666666667	109	'dc_xf02_common'	1	160	0.0	0.0	10
	0.08333333333333333	112	'dc_xf03_series'	1	161	0.0	0.0	206
	0.06046666666666667	112	'dc_xf03_common'	1	161	0.0	0.0	13
	0.08333333333333333	120	'dc_xf04_series'	1	162	0.0	0.0	199
	0.06046666666666667	120	'dc_xf04_common'	1	162	0.0	0.0	21
	0.08333333333333333	120	'dc_xf05_series'	1	163	0.0	0.0	199
	0.06046666666666667	120	'dc_xf05_common'	1	163	0.0	0.0	21
	0.08333333333333333	121	'dc_xf06_series'	1	164	0.0	0.0	194
	0.06046666666666667	121	'dc_xf06_common'	1	164	0.0	0.0	22
	0.08333333333333333	125	'dc_xf07_series'	1	165	0.0	0.0	204
	0.06046666666666667	125	'dc_xf07_common'	1	165	0.0	0.0	26
	0.08333333333333333	131	'dc_xf08_series'	1	166	0.0	0.0	205
	0.06046666666666667	131	'dc_xf08_common'	1	166	0.0	0.0	32
	0.08333333333333333	138	'dc_xf09_series'	1	167	0.0	0.0	192
	0.06046666666666667	138	'dc_xf09_common'	1	167	0.0	0.0	39
	0.08333333333333333	141	'dc_xf10_series'	1	168	0.0	0.0	195
	0.06046666666666667	141	'dc_xf10_common'	1	168	0.0	0.0	42
	0.08333333333333333	143	'dc_xf11_series'	1	169	0.0	0.0	201
	0.06046666666666667	143	'dc_xf11_common'	1	169	0.0	0.0	44
	0.08333333333333333	147	'dc_xf12_series'	1	170	0.0	0.0	207
	0.06046666666666667	147	'dc_xf12_common'	1	170	0.0	0.0	48
	0.08333333333333333	152	'dc_xf13_series'	1	171	0.0	0.0	191
	0.06046666666666667	152	'dc_xf13_common'	1	171	0.0	0.0	53
	0.08333333333333333	161	'dc_xf14_series'	1	172	0.0	0.0	190
	0.06046666666666667	161	'dc_xf14_common'	1	172	0.0	0.0	62
	0.08333333333333333	162	'dc_xf15_series'	1	173	0.0	0.0	198
	0.06046666666666667	162	'dc_xf15_common'	1	173	0.0	0.0	63
	0.08333333333333333	169	'dc_xf16_series'	1	174	0.0	0.0	202
	0.06046666666666667	169	'dc_xf16_common'	1	174	0.0	0.0	70
	0.08333333333333333	177	'dc_xf17_series'	1	175	0.0	0.0	197
	0.06046666666666667	177	'dc_xf17_common'	1	175	0.0	0.0	78
...